16

C          1.2324562453939070      0.1166666663115367     -0.2765668578408819
N          0.0320973290289337      0.1603643796542947     -0.0241932778216731
C          0.0270265738722567     -0.0470989402757107      1.4419857578089890
C          1.4147865729663949     -0.1316069984996095      1.8237534722181898
N          2.0912190732293094      0.0095346014191527      0.7227033266470085
C         -1.2243807494214547     -0.0448111337242590      2.2248544769211653
C         -2.5114341123364334     -0.2652699621104276      1.8093643810908566
C         -3.6648256823205831     -0.2021653167085549      2.6310960090906734
O         -4.9405281111781001     -0.2613293112463476      1.9566003830035892
O         -3.6354675282301860      0.1749556787514460      3.8491680826179291
H         -2.7563143883615271     -0.5628937308712756      0.7664894223433746
H         -1.2198815067073390      0.4106396476026419      3.3211017100123472
H          1.7148776793301821     -0.4223335796385379      2.7824688607499186
H          3.0782870642268754      0.2523081743282743      0.7658949745679690
H          1.5018116430324333      0.3962671860982994     -1.3382066004022364
H         -3.1247411405213694      0.8437312928249530      4.3089174280741220
