16

C          1.2228389387758940      0.0477522425548843     -0.3077118281985884
N          0.0032925594902635      0.1752148742584922     -0.0008069705695545
C          0.0605472957832404      0.1317042142810168      1.3867992385482142
C          1.2984669591121814     -0.0617230875799459      1.9256791633055883
N          2.0528728384545607     -0.0380691964510370      0.8393684648158094
C         -1.2184261902146898      0.0362049098644188      2.1136261648555732
C         -2.4825116456863716     -0.2118141901318160      1.5979636923096587
C         -3.6496155316100629     -0.2784776235380886      2.3400575140212942
O         -4.9436990330488300     -0.1956818222946680      2.3295055768614046
O         -3.5411643665524739      0.0521511892719097      3.8210985377012592
H         -2.2544350918718621     -0.7898501767068974      0.6849813138552917
H         -0.9269273162977120     -0.1072492968928149      3.2987654021205799
H          1.6951303195972354     -0.2550855502157860      2.8631226081796934
H          3.1075852290628494     -0.3221954056859825      0.8516823757993861
H          1.7359053370069193      0.0426461989901406     -1.1230305344605065
H         -4.0772555977912832      0.9413749099732923      3.7711118567164195
