16

C          1.1731247629652879     -0.0390573400797220     -0.2778818297472282
N         -0.0678872851590105     -0.2036947403412820      0.1478384036427527
C          0.0775571981624744     -0.0217232794605457      1.4448236034948010
C          1.3299562504908171      0.1267202180183585      1.9407395763072202
N          2.0572039721807576      0.0926845768139834      0.6075966578258466
C         -1.2401227415436347      0.1748616943969418      2.2880715246690149
C         -2.4704213102154693     -0.0936597522744013      1.7436543242873364
C         -3.6447243152888897     -0.0652697596863738      2.5282607713834890
O         -4.8149773357683507     -0.1414641090850158      1.9555611566832489
O         -3.6547019161315393     -0.1871993639577533      3.8451905152436257
H         -2.5768218346463478      0.0950062565551375      0.7038186672694843
H         -0.8669517151163008      0.5086666384545158      3.3652472253663057
H          1.8990312349111356     -0.0404970393690917      2.7430474221313288
H          2.9857941717729863      0.3438928657697048      0.4621772602298871
H          1.2487223655375208     -0.0920629586187892     -1.3325110945677170
H         -2.7024113163249877     -0.0016688951312667      3.9072828433501536
